<?xml version="1.0" encoding="UTF-8"?>

<!-- generated on 2023-04-24 20:53:40 by Eclipse SUMO netedit Version 1.16.0
-->

<routes xmlns:xsi="http://www.w3.org/2001/XMLSchema-instance" xsi:noNamespaceSchemaLocation="http://sumo.dlr.de/xsd/routes_file.xsd">
    <!-- Routes -->
    <route id="r_0" edges="-E18 E15 -E17 E16 E16.32 E10 E10.22 E10.50 E11"/>
    <route id="r_1" edges="-E160 E17 -E15 E18 -E14 -E14.29 -E14.72 -E13 -E130"/>
    <route id="r_2" edges="E0 -E17 E16 E16.32 E10 E10.22 E10.50 E11 E12 E120 E13 E13.28 E14 E140 E141 -E18 E15"/>
    <!-- Vehicles, persons and containers (sorted by depart) -->
    <trip id="t_0" depart="0.00" from="-E18" to="E11"/>
    <trip id="t_1" depart="0.00" from="-E160" to="-E130"/>
    <vehicle id="ego" depart="0.00" color="red" route="r_2"/>
</routes>
