<?xml version="1.0" encoding="UTF-8"?>

<!-- generated on 2023-04-24 20:53:40 by Eclipse SUMO netedit Version 1.16.0
-->

<additional xmlns:xsi="http://www.w3.org/2001/XMLSchema-instance" xsi:noNamespaceSchemaLocation="http://sumo.dlr.de/xsd/additional_file.xsd">
    <!-- Other additionals -->
    <rerouter id="rr_0" edges="-E130" pos="81.04,142.82">
        <interval begin="0.00" end="3600.00">
            <destProbReroute id="-E160" probability="1.00"/>
        </interval>
    </rerouter>
    <rerouter id="rr_1" edges="-E160" pos="-39.04,-12.06">
        <interval begin="0.00" end="3600.00">
            <destProbReroute id="-E130" probability="1.00"/>
        </interval>
    </rerouter>
    <rerouter id="rr_2" edges="E11" pos="-16.35,124.29">
        <interval begin="0.00" end="3600.00">
            <destProbReroute id="-E18" probability="1.00"/>
        </interval>
    </rerouter>
    <rerouter id="rr_3" edges="-E18" pos="55.51,7.42">
        <interval begin="0.00" end="3600.00">
            <destProbReroute id="E11" probability="1.00"/>
        </interval>
    </rerouter>
</additional>
