<?xml version="1.0" encoding="UTF-8"?>

<!-- generated on 2023-04-24 20:53:40 by Eclipse SUMO sumo Version 1.16.0
-->

<configuration xmlns:xsi="http://www.w3.org/2001/XMLSchema-instance" xsi:noNamespaceSchemaLocation="http://sumo.dlr.de/xsd/sumoConfiguration.xsd">

    <input>
        <net-file value="roundabout.net.xml"/>
        <route-files value="roundabout.rou.xml"/>
        <additional-files value="roundabout.add.xml"/>
    </input>

</configuration>
